[General]
network = Florasat.Test_Individual.Florasat_Individual_Sats

rng-class = "cMersenneTwister"
*.**.result-recording-modes = -       # --> none
**.result-recording-modes = -         # --> none
**.statistic-recording = true #false
**.scalar-recording = true #false
**.vector-recording = true #false
**.vector-record-eventnumbers = true #false


repeat = 2
seed-0-mt = ${23542, 84242 ! repetition}
sim-time-limit = 1199s#599s
simtime-resolution = -11

#####################
# Medium 
#####################
*.radioMedium.backgroundNoise.power = -110dBm # Original value -96.616dBm
*.radioMedium.mediumLimitCache.centerFrequency = 868MHz #Original Value Nan
*.radioMedium.mediumLimitCache.maxTransmissionDuration = 4s #original value 0.01s
*.radioMedium.mediumLimitCache.minInterferenceTime = 0s

#####################
# Satellites
#####################
**.numSatellites = 1

*.satellite[*].mobilityType = "Sat_Mob_SatelliteMobility_Standalone"


**.satellite[*].**.initFromDisplayString = false
*.satellite[*].mobility.faceForward = true#false
*.satellite[*].mobility.updateInterval = 20s # disable self-message update mechanism

*.satellite[*].NoradModule.satName  = "FLoRaSat"
*.satellite[*].NoradModule.satIndex = -1
*.satellite[*].NoradModule.baseYear = 20
*.satellite[*].NoradModule.baseDay  = 1.5


*.satellite[*].NoradModule.planes = 1
*.satellite[*].NoradModule.satPerPlane = 1
*.satellite[*].NoradModule.eccentricity = 0.000001
*.satellite[*].NoradModule.inclination = 98
*.satellite[*].NoradModule.altitude = 850

# Single pass satellite
*.satellite[0].NoradModule.raan = ${400, 390, 380, 370, 360, 350, 340, 330, 320, 310, 300}
*.satellite[0].NoradModule.meanAnomaly = 403 
#*.satellite[0].*.satIndex = 0


# Set antenna mobility modules for satellite radios
*.satellite[*].phyDSL.radio.antenna.typename = "ConstantGainAntenna"
*.satellite[*].phyDSL.radio.antenna.mobilityModule = "^.^.^.mobility"
*.satellite[*].phyISL.radio.antenna.mobilityModule = "^.^.^.mobility"
*.satellite[*].phyGSL.radio.antenna.mobilityModule = "^.^.^.mobility"

# Set antenna gain for radio 
*.satellite[*].phyDSL.radio.antenna.gain = 12dB

*.satellite[*].net.routingType = "Null_Routing" #"Base_Routing"
*.terminal[*].net.routingType = "Ter_Null_Routing" #"Base_Routing"

*.**.numGroundLinks 					  = 40
###*.topologyControl.updateInterval 		  = 10000ms
###*.topologyControl.timeSliceLength 		  = 5000ms
*.satellite[*].**.interfaceTableModule    = ""

# Routing Type
*.satellite[*].net.routingType = "Sat_Net_DDRARouting"
*.terminal[*].net.routingType = "Ter_Net_DDRARouting"
							   
# Disable ISLs
**.intraPlaneIslDisabled = false
**.interPlaneIslDisabled = false

###########################
# LoRa Nodes (devices on ground)
###########################
**.numTerminals = 60 #30
*.terminal[*].phy.radio.antenna.mobilityModule = "^.^.^.mob"
*.terminal[*].dlk.mac.interfaceTableModule = ""
*.terminal[*].dlk.energySourceModule = ""

*.terminal[*].dlk.mac.LoRaTP = 14
*.terminal[*].dlk.mac.LoRaSF = 12

*.terminal[*].app.initialLoRaCF = 868MHz 
*.terminal[*].app.initialLoRaBW = 125 kHz
*.terminal[*].app.initialLoRaCR = 4
*.terminal[*].app.initialLoRaTP = 14dBm
*.terminal[*].app.initialLoRaSF = 12


*.terminal[*].phy.radio.transmitter.centerFrequency = 868MHz
*.terminal[*].phy.radio.transmitter.power = 8dBm
*.terminal[*].phy.radio.transmitter.bandwidth = 125kHz



#*.terminal[*].dlk.radio = "^.^.phy.radio"
##*.terminal[*].dlk.mac.radioModule = "^.^.phy.radio"

# Application
**.numberOfPacketsToSend = 0  	#${numberOfPAckets = 200..5000 step 200}  # 0 means infinite number of packets
**.timeToFirstPacket 	 = 1s   #time to first packet can be set at any moment
**.timeToNextPacket 	 = 50s	#time to next packet must follow the 1% duty cycle, you can find the limit time on SimpleLoRaApp

include devices/WorldWide-30.ini
#*.terminal[*].mob.deploymentRadius 	= 10000.0
#*.terminal[*].mob.centerLatitude 	= 0.1	// never 0.0
#*.terminal[*].mob.centerLongitude 	= 0.1	// never 0.0

###########################
# Stations
###########################
**.numStations = 3
include stations/WorldWide-20.ini


#####################
# Visualizer
#####################
# Disable medium visualizer completely
*.visualizer.canvasVisualizer.mediumVisualizer.typename = ""

*.visualizer.*.radioVisualizer.displayAntennaLobes = true
*.visualizer.*.dataLinkVisualizer.displayLinks = true
*.visualizer.*.mobilityVisualizer.displayMovementTrails = true
*.visualizer.*.mobilityVisualizer.movementTrailLineWidth = 1
*.visualizer.*.mobilityVisualizer.trailLength = 3000


#####################
# Routing
####################
##*.topologyControl.timeSliceLength 	= 5000ms

